Name: Reddish brown fine sandy loam
Type: Soils
Class: Alfisol
Subclass: Paleustalf
Particle Size: see additional information
Sample No.: 87P2376
Owner: JHU
Origin: Howard Co. Tx. via USDA Soil Conservation service.
Description: The parent  material is eolian from level or undulating plains.  Reddish brown fine sandy loam (fine-loamy, mixed thermic aridic).
Measurement: Directional (10 degree) hemispherical reflectance
X Units: Wavelength (micrometers)
Y Units: Reflectance (percent)
wavelength	value
14.011	1.827
13.715	2.038
13.43	2.197
13.158	2.541
12.896	3.584
12.644	2.949
12.402	2.241
12.169	1.381
11.945	1.819
11.729	2.115
11.52	2.335
11.319	2.493
11.125	2.739
10.937	2.922
10.755	2.892
10.58	3.023
10.41	3.431
10.245	4.08
10.086	5.024
9.931	6.064
9.781	6.869
9.636	8.183
9.495	9.64
9.358	12.474
9.225	13
9.095	12.442
8.969	12.068
8.847	12.833
8.727	12.704
8.612	10.611
8.499	14.196
8.389	15.417
8.281	16.823
8.177	16.953
8.075	11.209
7.976	6.542
7.879	3.482
7.784	2.271
7.692	1.643
7.601	1.22
7.513	1.01
7.427	0.891
7.343	0.838
7.261	0.869
7.18	0.866
7.102	0.934
7.025	0.9
6.949	0.986
6.875	0.991
6.803	0.99
6.733	1.036
6.663	1.045
6.596	1.044
6.529	1.085
6.464	1.26
6.4	1.232
6.338	1.121
6.276	1.04
6.216	1.005
6.157	0.961
6.099	0.98
6.042	0.998
5.986	1.047
5.931	1.085
5.878	1.289
5.825	1.613
5.773	1.93
5.722	2.221
5.672	2.08
5.623	1.666
5.574	1.609
5.527	1.755
5.48	2.001
5.434	2.054
5.389	1.686
5.345	1.567
5.301	1.638
5.258	1.795
5.215	2.2
5.174	2.348
5.133	2.34
5.093	2.321
5.053	2.227
5.014	2.238
4.975	2.409
4.937	2.962
4.9	4.248
4.863	7.257
4.827	9.415
4.791	10.933
4.756	12.1
4.721	12.615
4.687	10.97
4.654	12.644
4.62	14.922
4.588	15.861
4.556	15.598
4.524	13.268
4.492	10.347
4.461	9.908
4.431	11.192
4.401	12.758
4.371	15.138
4.342	17.088
4.313	17.547
4.284	17.322
4.256	18.311
4.229	18.546
4.201	19.085
4.174	19.904
4.147	20.793
4.121	21.735
4.095	22.864
4.069	23.661
4.044	23.851
4.019	23.841
3.994	23.961
3.97	24.449
3.945	25.047
3.921	25.337
3.898	25.024
3.875	24.398
3.852	23.973
3.829	23.8
3.806	23.716
3.784	23.237
3.762	22.427
3.74	21.818
3.719	21.541
3.698	21.562
3.677	21.509
3.656	21.265
3.635	20.713
3.615	20.051
3.595	19.39
3.575	18.716
3.556	18.048
3.536	17.245
3.517	16.199
3.498	15.091
3.479	14.665
3.461	14.032
3.442	13.169
3.424	11.964
3.406	11.334
3.388	11.041
3.371	10.551
3.353	10.171
3.336	9.656
3.319	9.053
3.302	8.436
3.285	7.832
3.269	7.312
3.252	6.766
3.236	6.258
3.22	5.834
3.204	5.342
3.188	4.976
3.173	4.601
3.157	4.25
3.142	3.909
3.127	3.634
3.112	3.421
3.097	3.269
3.082	3.104
3.067	3.019
3.053	2.941
3.039	2.893
3.025	2.822
3.01	2.715
2.997	2.61
2.983	2.563
2.969	2.408
2.956	2.4
2.942	2.368
2.929	2.384
2.916	2.368
2.903	2.385
2.89	2.455
2.877	2.497
2.864	2.513
2.852	2.632
2.839	2.673
2.827	2.684
2.814	2.66
2.802	2.602
2.79	2.454
2.778	2.254
2.766	2.013
2.755	1.869
2.743	2.175
2.731	2.801
2.72	3.646
2.708	4.233
2.697	6.152
2.686	14.496
2.675	20.351
2.664	23.645
2.653	26.48
2.642	28.126
2.631	28.558
2.621	29.479
2.61	30.378
2.6	30.758
2.59	31.008
2.579	31.534
2.569	31.877
2.559	32.278
2.549	32.684
2.539	32.948
2.529	33.151
2.519	33.382
2.509	33.679
2.5	33.849
2.49	34.278
2.481	34.746
2.471	35.053
2.462	35.5
2.452	35.812
2.443	36.223
2.434	36.779
2.425	37.422
2.416	38.057
2.407	38.606
2.398	38.907
2.389	39.085
2.38	39.328
2.372	39.755
2.363	40.021
2.354	40.441
2.346	40.642
2.337	41.03
2.329	41.672
2.321	42.284
2.312	42.465
2.304	42.893
2.296	43.202
2.288	43.448
2.28	43.578
2.272	43.579
2.264	43.6
2.256	43.151
2.248	42.903
2.24	42.647
2.233	42.327
2.225	42.059
2.217	41.249
2.21	40.092
2.202	40.65
2.195	41.401
2.187	42.111
2.18	42.703
2.173	43.325
2.166	43.96
2.158	44.407
2.151	44.785
2.144	45.372
2.137	45.236
2.13	45.348
2.123	45.477
2.116	45.433
2.109	45.238
2.102	45.475
2.095	45.427
2.089	45.422
2.082	45.418
2.06	44.877
2.028	43.464
1.996	41.338
1.964	38.183
1.932	35.198
1.9	34.068
1.868	45.442
1.836	48.162
1.804	48.185
1.772	48.073
1.74	48.388
1.708	48.105
1.676	48.074
1.644	48.249
1.612	47.195
1.58	47.484
1.548	47.131
1.516	46.045
1.484	45.266
1.452	43.513
1.42	42.359
1.388	43.673
1.356	46.089
1.324	46.267
1.292	46.31
1.26	45.78
1.228	44.64
1.196	44.01
1.164	43.59
1.132	43.017
1.1	43.196
1.068	41.985
1.036	41.181
1.004	39.916
0.972	38.306
0.94	37.031
0.908	35.886
0.876	34.067
0.844	33.265
0.812	32.109
0.795	31.956
0.787	31.32
0.779	31.324
0.771	30.846
0.763	30.306
0.755	30.121
0.747	29.64
0.739	29.066
0.731	28.831
0.723	28.058
0.715	27.384
0.707	27.135
0.699	26.185
0.691	25.807
0.683	25.353
0.675	24.326
0.667	23.802
0.659	23.649
0.651	23.007
0.643	22.226
0.635	21.797
0.627	21.56
0.619	20.608
0.611	19.939
0.603	18.523
0.595	17.846
0.587	16.968
0.579	15.773
0.571	14.169
0.563	12.8
0.555	11.123
0.547	9.597
0.539	8.515
0.531	7.731
0.523	6.969
0.515	6.546
0.507	5.838
0.499	5.595
0.491	4.906
0.483	4.696
0.475	4.113
0.467	3.855
0.459	3.746
0.451	3.061
0.443	2.582
0.435	2.011
0.427	1.369
0.419	0.983
0.411	0.745
0.403	0.262
