Name: Dolomite CaMg(CO3)2
Type: Mineral
Class: Carbonates
Particle Size: Fine  (0-74 Micrometers)
Sample No.: dolomite.3
Owner: JHU
Wavelength Range: IR
Origin: Donated by Norma Vergo;  sample from Corydon, Indiana.
Description: The hand sample was massive, multicrystalline, and pink in color and appeared to be pure dolomite. Microscopic examination confirmed this.
Measurement: Bidirectional reflectance
X Units: Wavelength (micrometers)
Y Units: Reflectance (percent)
wavelength	value
25.044	1.899
24.339	1.823
23.672	1.804
23.041	1.784
22.442	1.572
21.874	0.989
21.334	0.396
20.82	0.267
20.33	0.201
19.863	0.305
19.416	0.435
18.99	0.726
18.581	0.986
18.19	1.264
17.815	1.629
17.455	1.979
17.109	2.306
16.777	2.667
16.458	3.203
16.15	3.654
15.854	3.667
15.568	3.471
15.292	3.703
15.027	4.088
14.77	4.36
14.521	4.482
14.281	4.214
14.049	3.007
13.824	1.257
13.607	0.946
13.396	4.091
13.191	6.096
12.993	7.133
12.8	7.513
12.614	7.764
12.432	7.884
12.256	7.847
12.084	7.709
11.918	7.226
11.755	3.865
11.598	4.077
11.444	1.397
11.294	1.639
11.149	6.074
11.007	6.425
10.868	6.526
10.733	6.624
10.602	6.642
10.473	6.778
10.348	6.729
10.225	6.533
10.106	6.34
9.989	6.318
9.875	6.189
9.763	5.841
9.654	5.64
9.547	5.891
9.443	5.944
9.341	5.433
9.241	5.364
9.143	4.846
9.047	5.012
8.954	5.071
8.862	4.891
8.772	4.74
8.684	4.493
8.597	4.399
8.513	3.923
8.43	3.426
8.348	3.625
8.268	3.841
8.19	3.372
8.113	3.057
8.037	3.187
7.963	3.227
7.891	3.245
7.819	3.147
7.749	2.763
7.68	2.585
7.613	2.637
7.546	2.44
7.481	2.144
7.417	2.045
7.353	1.811
7.291	1.565
7.23	1.356
7.17	1.23
7.111	1.175
7.053	1.403
6.996	1.566
6.94	1.518
6.885	1.523
6.83	1.574
6.777	1.641
6.724	1.731
6.672	1.877
6.621	2.164
6.571	2.444
6.521	2.756
6.472	3.182
6.424	3.715
6.377	4.347
6.33	3.86
6.284	2.901
6.238	2.281
6.194	2.187
6.15	2.023
6.106	1.63
6.063	1.57
6.021	1.621
5.979	1.81
5.938	2.04
5.898	2.282
5.858	2.505
5.818	2.659
5.779	2.794
5.741	2.892
5.703	3.091
5.666	3.071
5.629	2.873
5.592	2.562
5.556	1.926
5.521	1.168
5.486	1.187
5.451	2.88
5.417	4.828
5.383	5.979
5.35	6.673
5.317	7.095
5.285	7.578
5.252	8.177
5.221	8.695
5.189	9.075
5.158	9.447
5.128	9.702
5.097	9.845
5.068	9.053
5.038	10.098
5.009	10.496
4.98	10.615
4.951	10.684
4.923	10.747
4.895	10.79
4.868	10.82
4.84	10.834
4.814	10.838
4.787	10.805
4.76	10.745
4.734	10.609
4.709	10.271
4.683	9.543
4.658	8.306
4.633	7.911
4.608	7.931
4.584	8.574
4.56	9.121
4.536	9.476
4.512	9.845
4.488	10.296
4.465	10.011
4.442	9.628
4.42	9.883
4.397	10.362
4.375	10.73
4.353	10.842
4.331	10.283
4.309	10.042
4.288	9.995
4.267	10.147
4.246	10.246
4.225	10.285
4.205	10.455
4.184	10.421
4.164	10.187
4.144	9.923
4.124	9.843
4.105	9.658
4.085	9.294
4.066	8.713
4.047	7.931
4.028	6.785
4.009	5.179
3.991	3.517
3.973	1.942
3.954	1.732
3.936	1.835
3.918	2.036
3.901	2.784
3.883	3.057
3.866	3.433
3.849	4.768
3.832	4.762
3.815	3.69
3.798	3.687
3.781	4.831
3.765	6.174
3.748	7.964
3.732	9.226
3.716	9.693
3.7	10.026
3.685	10.331
3.669	10.476
3.653	10.568
3.638	10.605
3.623	10.588
3.608	10.544
3.593	10.47
3.578	10.315
3.563	9.873
3.548	8.996
3.534	8.953
3.519	7.836
3.505	5.956
3.491	4.129
3.477	3.331
3.463	2.904
3.449	2.747
3.435	3.403
3.422	4.031
3.408	4.248
3.395	4.486
3.382	4.872
3.369	4.807
3.355	4.287
3.342	3.948
3.33	3.954
3.317	3.593
3.304	3.744
3.292	6.593
3.279	8.001
3.267	8.649
3.254	9.051
3.242	9.333
3.23	9.56
3.218	9.701
3.206	9.808
3.194	9.87
3.182	9.896
3.171	9.928
3.159	9.901
3.148	9.707
3.136	9.564
3.125	9.553
3.114	9.526
3.102	9.506
3.091	9.376
3.08	9.326
3.069	9.419
3.058	9.524
3.048	9.552
3.037	9.577
3.026	9.676
3.016	9.751
3.005	9.784
2.995	9.772
2.985	9.766
2.974	9.784
2.964	9.794
2.954	9.79
2.944	9.78
2.934	9.784
2.924	9.793
2.914	9.82
2.904	9.802
2.895	9.794
2.885	9.837
2.875	9.845
2.866	9.835
2.856	9.878
2.847	9.938
2.838	10.065
2.828	10.134
2.819	10.159
2.81	10.131
2.801	10.074
2.792	9.977
2.783	9.822
2.774	9.591
2.765	9.664
2.756	9.891
2.747	10.168
2.739	10.435
2.73	10.684
2.721	10.842
2.713	11.055
2.704	11.174
2.696	11.252
2.687	11.313
2.679	11.481
2.671	11.582
2.663	11.697
2.654	11.762
2.646	11.787
2.638	11.781
2.63	11.743
2.622	11.749
2.614	11.755
2.606	11.737
2.599	11.723
2.591	11.695
2.583	11.646
2.575	11.596
2.568	11.498
2.56	11.377
2.553	11.204
2.545	10.904
2.538	10.447
2.53	10.031
2.523	9.771
2.515	9.673
2.508	9.737
2.501	9.851
2.494	9.998
2.486	10.133
2.479	10.244
2.472	10.293
2.465	10.316
2.458	10.367
2.451	10.465
2.444	10.625
2.437	10.785
2.43	10.918
2.424	10.994
2.417	11.085
2.41	11.151
2.403	11.15
2.397	11.175
2.39	11.188
2.384	11.208
2.377	11.24
2.37	11.22
2.364	11.194
2.358	11.142
2.351	11.01
2.345	10.763
2.338	10.535
2.332	10.313
2.326	10.206
2.32	10.202
2.313	10.241
2.307	10.285
2.301	10.347
2.295	10.372
2.289	10.499
2.283	10.536
2.277	10.538
2.271	10.55
2.265	10.645
2.259	10.734
2.253	10.814
2.247	10.872
2.241	10.95
2.236	11.011
2.23	11.039
2.224	11.065
2.218	11.086
2.213	11.126
2.207	11.157
2.201	11.206
2.196	11.242
2.19	11.264
2.185	11.321
2.179	11.305
2.174	11.276
2.168	11.285
2.163	11.262
2.157	11.303
2.152	11.307
2.147	11.294
2.141	11.273
2.136	11.319
2.131	11.336
2.126	11.356
2.12	11.408
2.115	11.398
2.11	11.45
2.105	11.438
2.1	11.478
2.095	11.495
2.09	11.567
2.085	11.571
2.079	11.56
