Name: Aragonite CaCO3
Type: Mineral
Class: Carbonates
Particle Size: Coarse (74-250 Micrometers)
Sample No.: aragonite.1
Owner: JHU
Wavelength Range: IR
Origin: Sample from Horenec, Bilina, Cechy, Czechoslovakia, via Smithsonian (sample no. NMNH B10083).
Description: The sample was composed of two transparent, colorless pieces: one prismatic, 1.8 cm x 1.8 cm x 2 cm, and weighing about 2 g; the other a 5 mm x 5 mm x 5 mm cleavage fragment weighing 0.65 g.  No impurities were detected in hand sample or microscopically.
Measurement: Bidirectional reflectance
X Units: Wavelength (micrometers)
Y Units: Reflectance (percent)
wavelength	value
24.924	1.888
24.225	0.922
23.564	0.829
22.939	1.208
22.345	1.4
21.782	1.615
21.247	1.968
20.737	2.239
20.251	2.552
19.787	2.914
19.344	3.115
18.92	3.453
18.515	3.856
18.126	4.328
17.754	4.922
17.396	5.543
17.053	6.135
16.723	6.726
16.406	7.127
16.1	7.631
15.805	8.067
15.521	8.425
15.248	8.719
14.983	8.803
14.728	8.368
14.481	5.904
14.242	3.104
14.011	5.255
13.788	5.83
13.571	8.021
13.361	8.882
13.158	9.195
12.96	9.334
12.769	9.11
12.583	8.642
12.402	7.924
12.227	7.117
12.056	5.793
11.89	4.997
11.729	5.828
11.572	7.173
11.419	10.347
11.27	6.495
11.125	4.753
10.983	3.784
10.846	5.53
10.711	5.793
10.58	5.999
10.452	6.218
10.327	6.451
10.205	6.31
10.086	6.675
9.97	6.992
9.856	7.055
9.745	7.015
9.636	6.879
9.53	6.541
9.426	5.611
9.324	5.274
9.224	2.753
9.127	5.241
9.032	5.385
8.938	5.597
8.847	5.15
8.757	4.711
8.669	4.322
8.583	3.867
8.499	3.586
8.416	3.66
8.335	3.794
8.255	3.93
8.177	3.836
8.1	3.709
8.025	3.623
7.951	3.695
7.879	3.584
7.807	3.517
7.738	3.619
7.669	3.672
7.601	3.78
7.535	3.868
7.47	3.933
7.406	3.987
7.343	4.09
7.281	4.254
7.22	4.411
7.16	4.59
7.102	4.91
7.044	5.333
6.987	6.007
6.931	7.598
6.876	10.004
6.821	12.234
6.768	13.974
6.715	15.527
6.663	16.655
6.612	17.124
6.562	17.269
6.513	17.211
6.464	16.722
6.416	14.986
6.369	11.759
6.322	9.704
6.276	7.314
6.231	5.027
6.186	3.315
6.142	1.989
6.099	1.111
6.056	0.749
6.014	0.73
5.973	0.832
5.932	0.981
5.891	1.127
5.851	1.274
5.812	1.424
5.773	1.685
5.735	1.947
5.697	2.164
5.66	2.306
5.623	1.358
5.586	1.2
5.55	2.336
5.515	4.807
5.48	6.043
5.446	6.902
5.411	7.616
5.378	8.219
5.344	8.76
5.312	9.193
5.279	9.511
5.247	9.774
5.215	10.07
5.184	10.391
5.153	10.566
5.123	10.77
5.092	11.001
5.063	11.214
5.033	11.411
5.004	11.718
4.975	11.895
4.947	12.085
4.919	12.219
4.891	12.349
4.863	12.401
4.836	12.467
4.809	12.503
4.782	12.209
4.756	11.092
4.73	9.218
4.704	8.509
4.679	8.043
4.654	7.407
4.629	7.367
4.604	8.463
4.58	8.846
4.555	9.558
4.532	10.161
4.508	10.69
4.485	10.934
4.461	10.914
4.438	10.854
4.416	11.131
4.393	11.515
4.371	11.573
4.349	10.778
4.327	9.857
4.306	9.195
4.284	9.268
4.263	9.039
4.242	9.018
4.222	9.332
4.201	9.276
4.181	9.429
4.161	9.546
4.141	9.45
4.121	9.07
4.101	8.593
4.082	8.041
4.063	6.64
4.044	4.834
4.025	3.218
4.006	2.462
3.988	2.265
3.969	2.086
3.951	2.053
3.933	2.449
3.916	2.385
3.898	2.63
3.88	3.025
3.863	3.305
3.846	3.493
3.829	3.408
3.812	3.345
3.795	3.442
3.779	4.226
3.762	5.609
3.746	8.121
3.73	9.349
3.714	9.843
3.698	10.175
3.682	10.345
3.666	10.437
3.651	10.524
3.635	10.513
3.62	10.458
3.605	10.182
3.59	10.209
3.575	9.99
3.561	9.481
3.546	8.84
3.531	7.509
3.517	4.805
3.503	3.467
3.489	4.184
3.475	4.388
3.461	3.689
3.447	2.901
3.433	2.391
3.42	2.268
3.406	2.498
3.393	2.681
3.38	2.791
3.366	2.784
3.353	2.752
3.34	2.918
3.327	3.641
3.315	4.561
3.302	5.261
3.289	5.95
3.277	7.234
3.265	8.096
3.252	8.501
3.24	8.791
3.228	8.99
3.216	9.174
3.204	9.348
3.192	9.527
3.18	9.649
3.169	9.703
3.157	9.731
3.146	9.589
3.134	9.32
3.123	9.246
3.112	9.378
3.101	9.232
3.089	9.498
3.078	9.83
3.068	10.068
3.057	10.287
3.046	10.44
3.035	10.555
3.025	10.615
3.014	10.65
3.004	10.71
2.993	10.79
2.983	10.899
2.973	10.991
2.962	11.084
2.952	11.175
2.942	11.263
2.932	11.353
2.922	11.414
2.912	11.476
2.903	11.568
2.893	11.645
2.883	11.665
2.874	11.715
2.864	11.853
2.855	11.976
2.845	11.99
2.836	12.014
2.827	11.931
2.817	11.489
2.808	10.984
2.799	11.213
2.79	11.295
2.781	10.555
2.772	11.772
2.763	12.275
2.755	12.882
2.746	13.351
2.737	13.668
2.729	13.944
2.72	14.036
2.711	14.09
2.703	14.165
2.694	14.278
2.686	14.574
2.678	14.821
2.669	14.936
2.661	14.985
2.653	15.025
2.645	14.992
2.637	14.979
2.629	15.009
2.621	15.002
2.613	14.989
2.605	14.911
2.597	14.9
2.589	14.842
2.582	14.586
2.574	14.052
2.566	13.492
2.559	13.171
2.551	12.753
2.544	12.229
2.536	11.979
2.529	11.666
2.521	11.183
2.514	11.312
2.507	11.509
2.5	11.974
2.492	12.255
2.485	12.525
2.478	12.741
2.471	12.872
2.464	12.998
2.457	13.192
2.45	13.444
2.443	13.727
2.436	14
2.429	14.254
2.423	14.429
2.416	14.568
2.409	14.657
2.402	14.705
2.396	14.734
2.389	14.739
2.382	14.788
2.376	14.719
2.369	14.556
2.363	14.232
2.356	13.935
2.35	13.575
2.344	13.428
2.337	13.297
2.331	13.244
2.325	13.218
2.318	13.103
2.312	13.198
2.306	13.238
2.3	13.243
2.294	13.282
2.288	13.414
2.282	13.529
2.276	13.676
2.27	13.764
2.264	13.929
2.258	13.975
2.252	14.049
2.246	14.17
2.24	14.271
2.235	14.428
2.229	14.434
2.223	14.508
2.217	14.601
2.212	14.666
2.206	14.676
2.2	14.748
2.195	14.829
2.189	14.803
2.184	14.825
2.178	14.809
2.173	14.803
2.167	14.78
2.162	14.79
2.156	14.799
2.151	14.76
2.146	14.74
2.14	14.842
2.135	14.884
2.13	14.893
2.125	14.98
2.119	14.991
2.114	15.018
2.109	15.018
2.104	14.98
2.099	15.041
2.094	15.049
2.089	15.142
2.084	15.101
