Name: Basalt
Type: Rock
Class: Igneous
Subclass: Mafic
Particle Size: Whole rock chips
Sample No.: ba2b1f
Owner: Larry Rowan, USGS
Origin: Wadi Zerqa Ma'in, Jordan
Description: dark gray basalt
Measurement: Reflectance
X Units: Wavelength (micrometers)
Y Units: Reflectance (percent)
wavelength	value
0.4	0.163
0.408	0.16
0.416	0.164
0.424	0.16
0.432	0.158
0.44	0.157
0.448	0.153
0.456	0.147
0.464	0.145
0.472	0.141
0.48	0.138
0.488	0.138
0.496	0.137
0.504	0.136
0.512	0.136
0.52	0.136
0.528	0.137
0.536	0.136
0.544	0.135
0.552	0.136
0.56	0.14
0.568	0.138
0.576	0.137
0.584	0.138
0.592	0.137
0.6	0.138
0.608	0.138
0.616	0.136
0.624	0.138
0.632	0.136
0.64	0.138
0.648	0.134
0.656	0.136
0.664	0.136
0.672	0.135
0.68	0.134
0.688	0.134
0.696	0.131
0.704	0.131
0.712	0.135
0.72	0.134
0.728	0.134
0.736	0.135
0.744	0.134
0.752	0.135
0.76	0.132
0.768	0.132
0.776	0.132
0.784	0.131
0.792	0.134
0.8	0.128
0.832	0.126
0.864	0.123
0.896	0.123
0.928	0.121
0.96	0.118
0.992	0.116
1.024	0.115
1.056	0.114
1.088	0.114
1.12	0.111
1.152	0.111
1.184	0.107
1.216	0.107
1.248	0.105
1.28	0.103
1.312	0.103
1.344	0.101
1.376	0.099
1.408	0.098
1.44	0.096
1.472	0.095
1.504	0.093
1.536	0.094
1.568	0.093
1.6	0.092
1.632	0.09
1.664	0.09
1.696	0.089
1.728	0.089
1.76	0.085
1.792	0.085
1.824	0.084
1.856	0.082
1.888	0.081
1.92	0.079
1.952	0.078
1.984	0.078
2.016	0.078
2.048	0.079
2.08	0.078
2.102	0.074
2.109	0.075
2.116	0.074
2.123	0.075
2.13	0.074
2.137	0.076
2.144	0.075
2.151	0.072
2.158	0.075
2.165	0.073
2.173	0.072
2.18	0.075
2.187	0.073
2.195	0.071
2.202	0.073
2.21	0.072
2.217	0.07
2.225	0.072
2.232	0.072
2.24	0.073
2.248	0.071
2.256	0.07
2.264	0.072
2.272	0.073
2.28	0.073
2.288	0.07
2.296	0.072
2.304	0.069
2.312	0.071
2.32	0.071
2.329	0.069
2.337	0.071
2.346	0.072
2.354	0.069
2.363	0.069
2.371	0.069
2.38	0.07
2.389	0.07
2.398	0.069
2.406	0.069
2.415	0.068
2.424	0.068
2.434	0.067
2.443	0.069
2.452	0.068
2.461	0.066
2.471	0.069
2.48	0.064
2.49	0.067
2.499	0.066
2.509	0.067
2.519	0.065
2.528	0.065
2.538	0.066
2.548	0.066
2.558	0.065
2.569	0.064
2.579	0.068
2.589	0.066
2.599	0.065
2.61	0.064
2.62	0.062
2.631	0.063
2.642	0.064
2.653	0.063
2.664	0.06
2.675	0.061
2.686	0.057
2.697	0.052
2.708	0.045
2.719	0.042
2.731	0.039
2.742	0.036
2.754	0.035
2.766	0.036
2.778	0.035
2.79	0.036
2.802	0.035
2.814	0.035
2.826	0.035
2.838	0.035
2.851	0.035
2.864	0.035
2.876	0.036
2.889	0.035
2.902	0.035
2.915	0.036
2.928	0.035
2.942	0.035
2.955	0.035
2.968	0.035
2.982	0.035
2.996	0.035
3.01	0.035
3.024	0.034
3.038	0.036
3.052	0.036
3.067	0.035
3.081	0.035
3.096	0.036
3.111	0.036
3.126	0.037
3.141	0.037
3.156	0.037
3.172	0.037
3.187	0.038
3.203	0.038
3.219	0.038
3.235	0.039
3.251	0.038
3.268	0.039
3.284	0.039
3.301	0.039
3.318	0.04
3.335	0.041
3.352	0.041
3.37	0.042
3.387	0.042
3.405	0.042
3.423	0.043
3.441	0.043
3.46	0.043
3.478	0.043
3.497	0.044
3.516	0.044
3.535	0.046
3.554	0.046
3.574	0.046
3.594	0.047
3.614	0.048
3.634	0.047
3.655	0.048
3.675	0.048
3.696	0.049
3.717	0.049
3.739	0.049
3.761	0.048
3.782	0.048
3.805	0.048
3.827	0.049
3.85	0.048
3.873	0.049
3.896	0.048
3.92	0.048
3.944	0.047
3.968	0.047
3.992	0.047
4.017	0.048
4.042	0.048
4.067	0.048
4.093	0.047
4.119	0.048
4.145	0.046
4.172	0.047
4.199	0.046
4.226	0.044
4.254	0.045
4.282	0.043
4.311	0.044
4.34	0.044
4.369	0.043
4.398	0.043
4.428	0.044
4.459	0.042
4.49	0.042
4.521	0.042
4.553	0.04
4.585	0.04
4.618	0.039
4.651	0.039
4.684	0.038
4.719	0.038
4.753	0.038
4.788	0.038
4.824	0.037
4.86	0.037
4.897	0.036
4.934	0.035
4.972	0.035
5.01	0.035
5.049	0.034
5.089	0.034
5.129	0.034
5.17	0.033
5.212	0.032
5.254	0.032
5.297	0.031
5.341	0.031
5.385	0.031
5.43	0.03
5.476	0.029
5.523	0.028
5.57	0.028
5.618	0.028
5.667	0.027
5.717	0.027
5.768	0.026
5.82	0.024
5.873	0.023
5.926	0.023
5.981	0.022
6.037	0.022
6.094	0.024
6.151	0.024
6.21	0.024
6.27	0.027
6.332	0.028
6.394	0.033
6.458	0.036
6.523	0.035
6.589	0.034
6.657	0.033
6.726	0.031
6.796	0.03
6.868	0.029
6.942	0.028
7.017	0.027
7.094	0.025
7.172	0.023
7.252	0.022
7.334	0.021
7.418	0.02
7.504	0.019
7.592	0.018
7.682	0.017
7.774	0.017
7.869	0.016
7.965	0.017
8.064	0.019
8.166	0.023
8.27	0.035
8.377	0.049
8.487	0.057
8.599	0.064
8.715	0.07
8.834	0.078
8.956	0.087
9.081	0.088
9.21	0.089
9.343	0.105
9.479	0.12
9.62	0.127
9.765	0.125
9.914	0.117
10.068	0.109
10.227	0.105
10.391	0.1
10.56	0.098
10.735	0.098
10.916	0.095
11.103	0.09
11.296	0.084
11.497	0.074
11.704	0.062
11.92	0.053
12.143	0.048
12.375	0.042
12.616	0.039
12.866	0.037
13.126	0.038
13.398	0.036
13.68	0.037
13.975	0.034
