Name: ALHA 77005
Type: Stony Meteorites
Class: Achondrite
Subclass: Shergottite
Particle Size: 0-75 micrometers
Sample No.: ALHA 77005
Owner: JHU
Origin: Meteorite found in Antarctica in 1977.  Smithsonian sample (USNM sample No. ALHA 77005.38).
Description: None.
Measurement: Bidirectional reflectance
X Units: Wavelength (micrometers)
Y Units: Reflectance (percent)
wavelength	value
25.044	1.879
24.339	1.853
23.672	1.5
23.041	1.219
22.442	0.993
21.874	1.026
21.334	1.194
20.82	1.284
20.33	1.544
19.863	1.625
19.416	1.672
18.99	1.735
18.581	1.658
18.19	1.466
17.815	1.262
17.455	1.135
17.109	1.02
16.777	1.05
16.458	1.067
16.15	1.046
15.854	0.959
15.568	0.806
15.292	0.777
15.027	0.869
14.77	0.99
14.521	1.192
14.281	1.41
14.049	1.487
13.824	1.518
13.607	1.575
13.396	1.762
13.191	1.929
12.993	2.005
12.8	1.941
12.614	1.852
12.432	1.742
12.256	1.558
12.084	1.364
11.918	1.215
11.755	1.306
11.598	1.506
11.444	1.819
11.294	1.967
11.149	1.956
11.007	2.003
10.868	2.121
10.733	2.167
10.602	2.01
10.473	1.647
10.348	1.602
10.225	1.605
10.106	1.468
9.989	1.445
9.875	1.446
9.763	1.475
9.654	1.551
9.547	1.619
9.443	1.644
9.341	1.47
9.241	1.307
9.143	1.274
9.047	1.299
8.954	1.298
8.862	1.262
8.772	1.169
8.684	1.139
8.597	1.156
8.513	1.245
8.43	1.402
8.348	1.61
8.268	1.874
8.19	2.224
8.113	2.62
8.037	3.044
7.963	3.446
7.891	3.792
7.819	4.095
7.749	4.36
7.68	4.548
7.613	4.721
7.546	4.938
7.481	5.19
7.417	5.447
7.353	5.665
7.291	5.822
7.23	5.987
7.17	6.134
7.111	6.257
7.053	6.415
6.996	6.605
6.94	6.746
6.885	6.829
6.83	6.938
6.777	7.061
6.724	7.122
6.672	7.088
6.621	7.05
6.571	7.037
6.521	7.067
6.472	7.062
6.424	7.017
6.377	6.968
6.33	6.873
6.284	6.822
6.239	6.789
6.194	6.795
6.15	6.811
6.106	6.686
6.063	6.372
6.021	6.19
5.979	6.316
5.938	6.479
5.898	6.628
5.858	6.784
5.818	6.885
5.779	6.963
5.741	6.839
5.703	6.602
5.666	6.422
5.629	6.517
5.592	6.824
5.556	7.067
5.521	7.154
5.486	7.191
5.451	7.291
5.417	7.426
5.383	7.544
5.35	7.609
5.317	7.628
5.285	7.613
5.252	7.644
5.221	7.723
5.189	7.795
5.158	7.891
5.128	8.011
5.098	8.126
5.068	8.228
5.038	8.312
5.009	8.393
4.98	8.503
4.951	8.722
4.923	8.973
4.895	9.209
4.868	9.38
4.84	9.528
4.814	9.657
4.787	9.796
4.761	9.915
4.734	10.034
4.709	10.136
4.683	10.254
4.658	10.38
4.633	10.518
4.608	10.624
4.584	10.734
4.559	10.828
4.536	10.898
4.512	10.96
4.488	11.012
4.465	11.06
4.442	11.099
4.42	11.132
4.397	11.174
4.375	11.211
4.353	11.233
4.331	11.25
4.309	11.274
4.288	11.315
4.267	11.337
4.246	11.368
4.225	11.401
4.205	11.44
4.184	11.471
4.164	11.49
4.144	11.511
4.124	11.532
4.105	11.553
4.085	11.576
4.066	11.596
4.047	11.614
4.028	11.62
4.009	11.636
3.991	11.651
3.973	11.656
3.954	11.658
3.936	11.658
3.918	11.665
3.901	11.672
3.883	11.663
3.866	11.653
3.849	11.651
3.832	11.648
3.815	11.647
3.798	11.626
3.781	11.628
3.765	11.617
3.748	11.614
3.732	11.595
3.716	11.59
3.7	11.566
3.684	11.56
3.669	11.547
3.653	11.537
3.638	11.532
3.623	11.511
3.608	11.496
3.593	11.468
3.578	11.449
3.563	11.409
3.548	11.375
3.534	11.338
3.519	11.272
3.505	11.129
3.491	11.129
3.477	11.127
3.463	11.1
3.449	11.048
3.436	10.958
3.422	10.814
3.408	10.799
3.395	10.88
3.382	10.879
3.369	10.873
3.355	10.925
3.342	10.928
3.33	10.915
3.317	10.903
3.304	10.869
3.292	10.84
3.279	10.803
3.267	10.75
3.254	10.737
3.242	10.697
3.23	10.67
3.218	10.637
3.206	10.608
3.194	10.563
3.182	10.532
3.171	10.488
3.159	10.455
3.148	10.417
3.136	10.365
3.125	10.345
3.114	10.289
3.102	10.264
3.091	10.223
3.08	10.207
3.069	10.183
3.058	10.148
3.048	10.129
3.037	10.095
3.026	10.05
3.016	10.04
3.005	10.022
2.995	9.987
2.985	9.955
2.974	9.934
2.964	9.913
2.954	9.857
2.944	9.845
2.934	9.84
2.924	9.874
2.914	9.892
2.904	9.918
2.895	9.928
2.885	9.952
2.875	9.965
2.866	10.028
2.856	10.05
2.847	10.089
2.837	10.127
2.828	10.154
2.819	10.185
2.81	10.235
2.801	10.292
2.792	10.377
2.783	10.456
2.774	10.582
2.765	10.667
2.756	10.752
2.747	10.882
2.739	10.985
2.73	11.083
2.721	11.134
2.713	11.216
2.704	11.266
2.696	11.291
2.688	11.322
2.679	11.351
2.671	11.33
2.663	11.362
2.655	11.347
2.646	11.327
2.638	11.32
2.63	11.269
2.622	11.281
2.614	11.259
2.606	11.211
2.599	11.233
2.591	11.193
2.583	11.164
2.575	11.124
2.568	11.114
2.56	11.104
2.553	11.067
2.545	11.047
2.538	11.011
2.53	10.984
2.523	10.971
2.515	10.932
2.508	10.874
2.501	10.85
2.494	10.817
2.486	10.816
2.479	10.755
2.472	10.73
2.465	10.7
2.458	10.677
2.451	10.631
2.444	10.599
2.437	10.564
2.43	10.572
2.424	10.563
2.417	10.503
2.41	10.474
2.403	10.438
2.397	10.422
2.39	10.395
2.384	10.384
2.377	10.365
2.37	10.333
2.364	10.316
2.357	10.315
2.351	10.273
2.345	10.251
2.338	10.172
2.332	10.199
2.326	10.175
2.32	10.114
2.313	10.083
2.307	10.122
2.301	10.069
2.295	10.068
2.289	10.044
2.283	9.975
2.277	9.96
2.271	9.961
2.265	9.943
2.259	9.92
2.253	9.924
2.247	9.937
2.241	9.898
2.236	9.866
2.23	9.913
2.224	9.872
2.218	9.823
2.213	9.838
2.207	9.805
2.201	9.802
2.196	9.773
2.19	9.765
2.185	9.761
2.179	9.657
2.174	9.695
2.168	9.69
2.163	9.674
2.157	9.639
2.152	9.629
2.147	9.592
2.141	9.614
2.136	9.549
2.131	9.58
2.126	9.57
2.12	9.595
2.115	9.572
2.11	9.557
2.105	9.534
2.1	9.478
2.095	9.511
2.09	9.492
2.084	9.478
2.079	9.486
