Name: ALHA 77155
Type: Stony Meteorites
Class: Ordinary Chondrite
Subclass: L6
Particle Size: 0-75 micrometers
Sample No.: ALHA 77155
Owner: JHU
Origin: Meteorite found in Antarctica in 1977.  Smithsonian sample No. USNM  ALHA 77155.12.
Description: None.
Measurement: Bidirectional reflectance
X Units: Wavelength (micrometers)
Y Units: Reflectance (percent)
wavelength	value
25.044	1.248
24.339	1.25
23.672	1.164
23.041	1.169
22.442	1.108
21.874	0.984
21.334	0.992
20.82	1.135
20.33	1.338
19.863	1.469
19.416	1.516
18.99	1.31
18.581	1.279
18.19	1.28
17.815	1.196
17.455	1.145
17.109	1.115
16.777	1.06
16.458	1.039
16.15	0.959
15.854	0.882
15.568	0.782
15.292	0.713
15.027	0.881
14.77	0.988
14.521	1.14
14.281	1.238
14.049	1.312
13.824	1.302
13.607	1.393
13.396	1.506
13.191	1.729
12.993	1.808
12.8	1.785
12.614	1.747
12.432	1.692
12.256	1.617
12.084	1.404
11.918	1.191
11.755	1.239
11.598	1.358
11.444	1.634
11.294	1.74
11.149	1.617
11.007	1.549
10.868	1.62
10.733	1.721
10.602	1.667
10.473	1.472
10.348	1.375
10.225	1.429
10.106	1.311
9.989	1.248
9.875	1.179
9.763	1.19
9.654	1.328
9.547	1.485
9.443	1.529
9.341	1.434
9.241	1.336
9.143	1.331
9.047	1.343
8.954	1.282
8.862	1.26
8.772	1.174
8.684	1.15
8.597	1.147
8.513	1.222
8.43	1.369
8.348	1.608
8.268	1.895
8.19	2.168
8.113	2.397
8.037	2.61
7.963	2.815
7.891	2.986
7.819	3.154
7.749	3.298
7.68	3.408
7.613	3.475
7.546	3.574
7.481	3.699
7.417	3.793
7.353	3.916
7.291	4.028
7.23	4.145
7.17	4.255
7.111	4.352
7.053	4.467
6.996	4.591
6.94	4.674
6.885	4.736
6.83	4.787
6.777	4.844
6.724	4.889
6.672	4.877
6.621	4.853
6.571	4.873
6.521	4.925
6.472	4.948
6.424	4.939
6.377	4.905
6.33	4.813
6.284	4.772
6.239	4.752
6.194	4.728
6.15	4.743
6.106	4.697
6.063	4.538
6.021	4.428
5.979	4.53
5.938	4.726
5.898	4.888
5.858	5.016
5.818	5.078
5.779	5.137
5.741	5.087
5.703	4.978
5.666	4.866
5.629	4.913
5.592	5.109
5.556	5.3
5.521	5.368
5.486	5.373
5.451	5.415
5.417	5.513
5.383	5.615
5.35	5.683
5.317	5.693
5.285	5.642
5.252	5.614
5.221	5.612
5.189	5.586
5.158	5.601
5.128	5.691
5.098	5.78
5.068	5.864
5.038	5.942
5.009	5.992
4.98	6.021
4.951	6.111
4.923	6.231
4.895	6.353
4.868	6.432
4.84	6.503
4.814	6.59
4.787	6.712
4.761	6.801
4.734	6.867
4.709	6.936
4.683	6.999
4.658	7.087
4.633	7.169
4.608	7.25
4.584	7.322
4.559	7.367
4.536	7.414
4.512	7.45
4.488	7.471
4.465	7.501
4.442	7.514
4.42	7.529
4.397	7.547
4.375	7.569
4.353	7.582
4.331	7.595
4.309	7.61
4.288	7.616
4.267	7.639
4.246	7.664
4.225	7.678
4.205	7.698
4.184	7.712
4.164	7.718
4.144	7.728
4.124	7.735
4.105	7.741
4.085	7.749
4.066	7.761
4.047	7.773
4.028	7.777
4.009	7.778
3.991	7.779
3.973	7.777
3.954	7.775
3.936	7.777
3.918	7.763
3.901	7.759
3.883	7.756
3.866	7.742
3.849	7.729
3.832	7.716
3.815	7.705
3.798	7.696
3.781	7.678
3.765	7.66
3.748	7.649
3.732	7.626
3.716	7.613
3.7	7.589
3.684	7.564
3.669	7.545
3.653	7.523
3.638	7.511
3.623	7.481
3.608	7.452
3.593	7.423
3.578	7.399
3.563	7.358
3.548	7.325
3.534	7.272
3.519	7.221
3.505	7.117
3.491	7.114
3.477	7.103
3.463	7.066
3.449	7.004
3.436	6.936
3.422	6.814
3.408	6.8
3.395	6.836
3.382	6.803
3.369	6.805
3.355	6.78
3.342	6.756
3.33	6.718
3.317	6.679
3.304	6.637
3.292	6.586
3.279	6.539
3.267	6.498
3.254	6.44
3.242	6.405
3.23	6.354
3.218	6.311
3.206	6.256
3.194	6.217
3.182	6.17
3.171	6.112
3.159	6.077
3.148	6.026
3.136	5.98
3.125	5.945
3.114	5.909
3.102	5.879
3.091	5.849
3.08	5.815
3.069	5.776
3.058	5.766
3.048	5.722
3.037	5.695
3.026	5.683
3.016	5.665
3.005	5.634
2.995	5.612
2.985	5.593
2.974	5.576
2.964	5.566
2.954	5.555
2.944	5.564
2.934	5.552
2.924	5.557
2.914	5.568
2.904	5.59
2.895	5.609
2.885	5.637
2.875	5.661
2.866	5.7
2.856	5.743
2.847	5.799
2.837	5.869
2.828	5.979
2.819	6.041
2.81	6.106
2.801	6.203
2.792	6.321
2.783	6.407
2.774	6.541
2.765	6.673
2.756	6.798
2.747	6.983
2.739	7.149
2.73	7.323
2.721	7.459
2.713	7.606
2.704	7.771
2.696	7.869
2.688	7.979
2.679	8.006
2.671	8.05
2.663	8.085
2.655	8.102
2.646	8.095
2.638	8.08
2.63	8.078
2.622	8.085
2.614	8.07
2.606	8.036
2.599	8.053
2.591	8.058
2.583	8.025
2.575	7.988
2.568	8.012
2.56	8.016
2.553	7.976
2.545	7.987
2.538	7.967
2.53	7.962
2.523	7.93
2.515	7.918
2.508	7.913
2.501	7.911
2.494	7.885
2.486	7.862
2.479	7.871
2.472	7.845
2.465	7.799
2.458	7.838
2.451	7.799
2.444	7.785
2.437	7.75
2.43	7.744
2.424	7.729
2.417	7.711
2.41	7.699
2.403	7.681
2.397	7.693
2.39	7.684
2.384	7.668
2.377	7.632
2.37	7.616
2.364	7.597
2.357	7.621
2.351	7.58
2.345	7.6
2.338	7.554
2.332	7.533
2.326	7.522
2.32	7.529
2.313	7.521
2.307	7.535
2.301	7.497
2.295	7.473
2.289	7.475
2.283	7.475
2.277	7.44
2.271	7.431
2.265	7.438
2.259	7.439
2.253	7.391
2.247	7.379
2.241	7.392
2.236	7.39
2.23	7.362
2.224	7.348
2.218	7.338
2.213	7.331
2.207	7.333
2.201	7.312
2.196	7.265
2.19	7.285
2.185	7.264
2.179	7.259
2.174	7.207
2.168	7.236
2.163	7.247
2.157	7.189
2.152	7.182
2.147	7.226
2.141	7.207
2.136	7.174
2.131	7.206
2.126	7.175
2.12	7.146
2.115	7.131
2.11	7.076
2.105	7.129
2.1	7.127
2.095	7.103
2.09	7.06
2.084	7.06
2.079	7.055
