Name: Aplite
Type: Rocks
Class: Igneous
Subclass: Felsic
Particle Size: 0-75 micrometers
Sample No.: Aplite.H1
Owner: JHU
Origin: From Boulder County, Colorado via Ward's Scientific (Cat. No. W-101)
Description: Powder derived from sample: fine-grained to medium-grained leucocratic rock composed of quartz, feldspar, micas and opaques.
Measurement: Directional (10 degree) hemispherical reflectance
X Units: Wavelength (micrometers)
Y Units: Reflectance (percent)
wavelength	value
14.011	1.508
13.715	3.21
13.43	2.889
13.158	2.265
12.896	1.879
12.644	1.883
12.402	2.699
12.169	5.257
11.945	7.584
11.729	7.946
11.52	7.745
11.319	7.628
11.125	6.548
10.937	5.488
10.756	4.667
10.58	4.074
10.41	3.726
10.245	3.653
10.086	3.752
9.931	4.115
9.781	3.908
9.636	4.011
9.495	3.988
9.358	4.864
9.225	5.256
9.095	4.85
8.969	4.723
8.847	4.788
8.727	4.736
8.612	4.278
8.499	5.327
8.389	5.488
8.281	5.804
8.177	5.946
8.075	4.149
7.976	2.72
7.879	1.603
7.784	1.131
7.692	0.989
7.601	0.942
7.513	1.105
7.427	1.392
7.343	1.771
7.261	2.363
7.18	3.043
7.102	3.978
7.025	4.623
6.949	5.174
6.875	5.766
6.803	5.919
6.733	5.954
6.663	6.555
6.596	6.897
6.529	7.324
6.464	9.11
6.4	9.381
6.338	8.318
6.276	7.037
6.216	6.392
6.157	7.522
6.099	9.445
6.042	10.246
5.986	9.962
5.931	9.346
5.878	10.537
5.825	11.613
5.773	12.094
5.722	12.349
5.672	11.759
5.623	10.266
5.574	10.127
5.527	11.67
5.48	13.964
5.434	14.834
5.389	12.376
5.345	10.784
5.301	11.594
5.258	13.722
5.215	17.535
5.174	19.109
5.133	19.687
5.093	20.266
5.053	19.945
5.014	20.285
4.975	22.252
4.937	25.64
4.9	29.623
4.863	34.544
4.827	36.459
4.791	37.043
4.756	37.728
4.721	38.642
4.687	38.298
4.654	39.791
4.62	42.043
4.588	43.906
4.556	45.462
4.524	45.982
4.492	45.367
4.461	46.079
4.431	48.184
4.401	50.257
4.371	52.847
4.342	54.999
4.313	56.308
4.284	57.047
4.256	58.573
4.229	58.94
4.201	59.83
4.174	60.615
4.147	61.331
4.121	61.924
4.095	62.504
4.069	62.891
4.044	62.79
4.019	62.051
3.994	60.838
3.97	60.757
3.945	62.17
3.921	63.053
3.898	63.236
3.875	63.14
3.852	63.198
3.829	63.641
3.806	64.275
3.784	64.588
3.762	64.378
3.74	64.253
3.719	64.369
3.698	64.615
3.677	64.854
3.656	64.916
3.635	64.749
3.615	64.606
3.595	64.355
3.575	64.056
3.556	63.784
3.536	63.25
3.517	62.09
3.498	60.794
3.479	60.507
3.461	60.785
3.442	60.392
3.424	59.229
3.406	58.71
3.388	58.796
3.371	58.369
3.353	58.078
3.336	58.336
3.319	58.05
3.302	57.519
3.285	56.917
3.269	56.263
3.252	55.501
3.236	54.683
3.22	53.872
3.204	52.936
3.188	52.069
3.173	51.196
3.157	50.392
3.142	49.647
3.127	48.873
3.112	48.223
3.097	47.557
3.082	47.155
3.067	46.68
3.053	46.321
3.039	46.089
3.025	45.81
3.01	45.596
2.997	45.284
2.983	44.903
2.969	44.62
2.956	44.362
2.942	44.322
2.929	44.442
2.916	44.651
2.903	44.955
2.89	45.24
2.877	45.554
2.864	45.927
2.852	46.125
2.839	46.322
2.827	46.383
2.814	46.44
2.802	46.476
2.79	46.177
2.778	45.772
2.766	45.045
2.755	45.995
2.743	47.951
2.731	50.249
2.72	53.39
2.708	52.341
2.697	59.378
2.686	65.881
2.675	67.711
2.664	70.56
2.653	71.224
2.642	71.676
2.631	71.934
2.621	72.081
2.61	72.144
2.6	72.253
2.59	72.12
2.579	72.242
2.569	72.404
2.559	72.35
2.549	72.292
2.539	72.468
2.529	72.403
2.519	72.456
2.509	72.549
2.5	72.496
2.49	72.585
2.481	72.628
2.471	72.776
2.462	72.775
2.452	72.864
2.443	72.788
2.434	73.01
2.425	73.039
2.416	73.062
2.407	73.162
2.398	73.257
2.389	73.122
2.38	73.228
2.372	73.139
2.363	73.318
2.354	73.144
2.346	73.325
2.337	73.326
2.329	73.416
2.321	73.465
2.312	73.609
2.304	73.638
2.296	73.632
2.288	73.794
2.28	73.862
2.272	73.664
2.264	73.599
2.256	73.584
2.248	73.58
2.24	73.598
2.233	73.513
2.225	73.643
2.217	73.477
2.21	73.28
2.202	73.302
2.195	73.477
2.187	73.686
2.18	73.774
2.173	73.903
2.166	73.879
2.158	73.98
2.151	74.066
2.144	74.068
2.137	74.102
2.13	74.134
2.123	74.113
2.116	74.108
2.109	74.222
2.102	74.128
2.095	74.115
2.089	73.973
2.082	74.115
2.06	73.936
2.028	73.076
1.996	72.14
1.964	70.961
1.932	70.254
1.9	70.231
1.868	71.049
1.836	70.236
1.804	70.365
1.772	70.074
1.74	70.03
1.708	69.677
1.676	69.306
1.644	69.296
1.612	68.286
1.58	67.898
1.548	68.102
1.516	67.542
1.484	66.895
1.452	66.554
1.42	66.031
1.388	65.368
1.356	65.168
1.324	63.978
1.292	64.42
1.26	63.282
1.228	63.751
1.196	62.24
1.164	61.931
1.132	62.281
1.1	61.839
1.068	61.332
1.036	61.012
1.004	61.18
0.972	60.296
0.94	60.305
0.908	60.777
0.876	61.464
0.844	62.234
0.812	62.967
0.795	63.409
0.787	63.37
0.779	63.607
0.771	63.209
0.763	63.464
0.755	63.384
0.747	63.236
0.739	63.58
0.731	63.185
0.723	63.398
0.715	63.099
0.707	63.314
0.699	62.88
0.691	63.123
0.683	62.998
0.675	62.808
0.667	62.484
0.659	62.808
0.651	62.5
0.643	62.51
0.635	62.338
0.627	62.046
0.619	61.9
0.611	61.973
0.603	61.504
0.595	61.62
0.587	61.394
0.579	61.285
0.571	61.348
0.563	61.103
0.555	60.517
0.547	59.912
0.539	59.764
0.531	59.665
0.523	59.424
0.515	58.954
0.507	58.52
0.499	58.489
0.491	58.258
0.483	57.903
0.475	57.396
0.467	57.321
0.459	57.056
0.451	56.558
0.443	56.32
0.435	55.764
0.427	55.4
0.419	54.831
0.411	54.055
0.403	53.481
