Name: Basaltic Andesite
Type: Rocks
Class: Igneous
Subclass: Intermediate
Particle Size: Solid
Sample No.: Andesite.H4
Owner: JHU
Origin: Agrigan Volcano, Mariana Is., via Smithsonian (Cat. No: NMNH 115263-19)
Description: A dark gray, porphyritic and vuggy rock. The phenocrysts are plagioclase laths, orangish-yellow olivine and opaques.
Measurement: Directional (10 degree) hemispherical reflectance
X Units: Wavelength (micrometers)
Y Units: Reflectance (percent)
wavelength	value
14.011	0.975
13.715	1.854
13.43	1.676
13.158	2.205
12.896	2.066
12.644	2.519
12.402	2.746
12.169	3.57
11.945	4.267
11.729	5.088
11.52	5.926
11.319	7.15
11.125	8.492
10.937	9.615
10.755	10.415
10.58	10.525
10.41	10.171
10.245	9.407
10.086	9.53
9.931	9.51
9.781	9.473
9.636	8.875
9.495	8.022
9.358	7.732
9.225	8.319
9.095	9.044
8.969	9.295
8.847	8.919
8.727	8.299
8.612	7.98
8.499	7.321
8.389	6.233
8.281	4.944
8.177	3.545
8.075	2.752
7.976	2.475
7.879	2.351
7.784	2.184
7.692	2.104
7.601	2.144
7.513	2.138
7.427	2.168
7.343	2.211
7.261	2.328
7.18	2.441
7.102	2.461
7.025	2.556
6.949	2.527
6.875	2.579
6.803	2.541
6.733	2.652
6.663	2.666
6.596	2.662
6.529	2.728
6.464	2.731
6.4	2.756
6.338	2.773
6.276	2.763
6.216	2.743
6.157	2.766
6.099	2.82
6.042	2.846
5.986	2.891
5.931	2.92
5.878	3.071
5.825	3.134
5.773	3.191
5.722	3.276
5.672	3.395
5.623	3.458
5.574	3.502
5.527	3.582
5.48	3.677
5.434	3.682
5.389	3.728
5.345	3.757
5.301	3.826
5.258	3.943
5.215	4.077
5.174	4.175
5.133	4.261
5.093	4.385
5.053	4.445
5.014	4.524
4.975	4.636
4.937	4.713
4.9	4.888
4.863	4.989
4.827	5.066
4.791	5.169
4.756	5.228
4.721	5.281
4.687	5.373
4.654	5.465
4.62	5.592
4.588	5.702
4.556	5.799
4.524	5.897
4.492	5.947
4.461	6.016
4.431	6.102
4.401	6.14
4.371	6.201
4.342	6.247
4.313	6.343
4.284	6.41
4.256	6.495
4.229	6.566
4.201	6.592
4.174	6.614
4.147	6.663
4.121	6.673
4.095	6.702
4.069	6.715
4.044	6.76
4.019	6.771
3.994	6.795
3.97	6.8
3.945	6.799
3.921	6.832
3.898	6.856
3.875	6.862
3.852	6.879
3.829	6.875
3.806	6.931
3.784	6.948
3.762	6.924
3.74	6.975
3.719	6.977
3.698	6.965
3.677	6.971
3.656	6.969
3.635	6.997
3.615	7.006
3.595	7.016
3.575	6.989
3.556	7.025
3.536	6.948
3.517	6.87
3.498	6.708
3.479	6.672
3.461	6.728
3.442	6.619
3.424	6.469
3.406	6.449
3.388	6.47
3.371	6.546
3.353	6.782
3.336	6.895
3.319	6.901
3.302	6.942
3.285	6.901
3.269	6.846
3.252	6.812
3.236	6.839
3.22	6.805
3.204	6.829
3.188	6.747
3.173	6.727
3.157	6.675
3.142	6.661
3.127	6.601
3.112	6.592
3.097	6.55
3.082	6.547
3.067	6.49
3.053	6.497
3.039	6.442
3.025	6.525
3.01	6.481
2.997	6.49
2.983	6.494
2.969	6.483
2.956	6.483
2.942	6.496
2.929	6.54
2.916	6.594
2.903	6.663
2.89	6.698
2.877	6.678
2.864	6.772
2.852	6.786
2.839	6.833
2.827	6.929
2.814	6.939
2.802	6.981
2.79	7.057
2.778	7.161
2.766	7.207
2.755	7.327
2.743	7.468
2.731	7.629
2.72	7.519
2.708	7.937
2.697	8.134
2.686	8.183
2.675	8.214
2.664	8.216
2.653	8.266
2.642	8.3
2.631	8.32
2.621	8.308
2.61	8.364
2.6	8.373
2.59	8.406
2.579	8.384
2.569	8.355
2.559	8.317
2.549	8.391
2.539	8.399
2.529	8.426
2.519	8.476
2.509	8.473
2.5	8.466
2.49	8.423
2.481	8.479
2.471	8.457
2.462	8.53
2.452	8.504
2.443	8.499
2.434	8.528
2.425	8.453
2.416	8.511
2.407	8.601
2.398	8.59
2.389	8.619
2.38	8.662
2.372	8.57
2.363	8.608
2.354	8.561
2.346	8.7
2.337	8.758
2.329	8.705
2.321	8.667
2.312	8.638
2.304	8.741
2.296	8.692
2.288	8.729
2.28	8.828
2.272	8.81
2.264	8.788
2.256	8.891
2.248	8.744
2.24	8.769
2.233	8.904
2.225	8.849
2.217	8.824
2.21	8.766
2.202	8.864
2.195	8.94
2.187	8.961
2.18	8.887
2.173	8.884
2.166	8.889
2.158	8.986
2.151	8.914
2.144	8.916
2.137	8.907
2.13	9.015
2.123	8.984
2.116	8.953
2.109	8.877
2.102	9.023
2.095	9.037
2.089	9.057
2.082	8.985
2.06	9.025
2.028	8.975
1.996	9.182
1.964	9.117
1.932	9.177
1.9	9.371
1.868	9.328
1.836	9.421
1.804	9.666
1.772	9.703
1.74	9.736
1.708	9.897
1.676	9.984
1.644	10.03
1.612	10.169
1.58	10.094
1.548	10.166
1.516	10.25
1.484	10.245
1.452	10.23
1.42	10.248
1.388	10.276
1.356	10.268
1.324	10.306
1.292	10.304
1.26	10.324
1.228	10.305
1.196	10.506
1.164	10.539
1.132	10.582
1.1	10.495
1.068	10.242
1.036	10.049
1.004	10.062
0.972	9.937
0.94	10.066
0.908	10.432
0.876	10.775
0.844	11.392
0.812	11.863
0.795	11.57
0.787	11.357
0.779	11.527
0.771	11.4
0.763	11.802
0.755	11.552
0.747	11.452
0.739	11.438
0.731	11.468
0.723	11.3
0.715	11.297
0.707	11.282
0.699	11.344
0.691	11.369
0.683	11.292
0.675	11.134
0.667	11.199
0.659	11.268
0.651	11.14
0.643	11.043
0.635	11.123
0.627	11.227
0.619	11.144
0.611	11.146
0.603	11.039
0.595	10.967
0.587	10.969
0.579	10.954
0.571	11.11
0.563	11.182
0.555	10.662
0.547	10.458
0.539	10.293
0.531	10.449
0.523	10.69
0.515	10.34
0.507	10.08
0.499	9.992
0.491	9.94
0.483	9.905
0.475	10.177
0.467	9.511
0.459	9.97
0.451	9.83
0.443	9.755
0.435	9.383
0.427	9.287
0.419	8.857
0.411	8.694
0.403	8.472
