Name: Purple Quartzite
Type: Rocks
Class: Metamorphic
Subclass: Quartzite
Particle Size: 500-1500 Micrometer
Sample No.: qrtzit4.doc
Owner: JHU
Wavelength Range: All
Origin: Sample No. 378, The Hunt and Salisbury Collection at the U.S. Geological Survey, Denver, Co.
Description: A schistose sample consisting of medium to coarse-grained recrystallized quartz with some muscovite that often contains ferruginous material.  In addition there are scattered opaques present in this sample.  The modal analyses for this rock are 88.2% quartz, 7.2% muscovite, 3.5% opaques and 1.1% other.
Measurement: Directional (10 Degree) Hemispherical Reflectance
X Units: Wavelength (micrometers)
Y Units: Reflectance (percent)
wavelength	value
14.983	2.59
14.645	3.281
14.321	2.505
14.011	2.874
13.715	3.16
13.43	3.695
13.158	4.395
12.896	7.418
12.644	5.829
12.402	5.257
12.169	1.508
11.945	2.317
11.729	2.799
11.52	3.257
11.319	3.624
11.125	4.031
10.937	4.527
10.755	4.625
10.58	4.984
10.41	5.353
10.245	6.001
10.086	6.931
9.931	8.213
9.781	9.33
9.636	11.882
9.495	15.361
9.358	27.163
9.225	33.033
9.095	32.943
8.969	32.008
8.847	33.862
8.727	31.494
8.612	21.763
8.499	31.973
8.389	31.2
8.281	31.175
8.177	30.483
8.075	19.059
7.976	10.659
7.879	4.984
7.784	2.666
7.692	1.429
7.601	0.768
7.513	0.548
7.427	0.45
7.343	0.435
7.261	0.452
7.18	0.511
7.102	0.538
7.025	0.608
6.949	0.662
6.875	0.655
6.803	0.68
6.733	0.75
6.663	0.827
6.596	0.867
6.529	0.875
6.464	0.965
6.4	1.027
6.338	1.011
6.276	1.006
6.216	0.957
6.157	1.002
6.099	1.097
6.042	1.125
5.986	1.164
5.931	1.163
5.878	1.25
5.825	1.345
5.773	1.422
5.722	1.523
5.672	1.487
5.623	1.378
5.574	1.396
5.527	1.416
5.48	1.478
5.434	1.528
5.389	1.45
5.345	1.406
5.301	1.422
5.258	1.469
5.215	1.583
5.174	1.632
5.133	1.669
5.093	1.662
5.053	1.663
5.014	1.682
4.975	1.726
4.937	1.862
4.9	2.321
4.863	3.889
4.827	5.58
4.791	7.135
4.756	8.556
4.721	9.191
4.687	7.142
4.654	9.168
4.62	12.543
4.588	14.056
4.556	13.433
4.524	9.703
4.492	6.324
4.461	5.854
4.431	7.001
4.401	8.612
4.371	11.428
4.342	13.954
4.313	14.058
4.284	13.387
4.256	14.78
4.229	15.38
4.201	15.926
4.174	17.131
4.147	18.41
4.121	19.95
4.095	21.951
4.069	23.522
4.044	23.73
4.019	23.423
3.994	23.702
3.97	24.884
3.945	26.396
3.921	27.29
3.898	26.895
3.875	25.785
3.852	25.297
3.829	25.775
3.806	26.412
3.784	26.149
3.762	25.098
3.74	24.437
3.719	25.13
3.698	26.727
3.677	28.895
3.656	30.428
3.635	31.017
3.615	31.215
3.595	31.506
3.575	32.026
3.556	32.738
3.536	33.318
3.517	33.403
3.498	33.63
3.479	34.143
3.461	34.144
3.442	33.677
3.424	33.045
3.406	32.532
3.388	32.385
3.371	32.04
3.353	32.031
3.336	31.712
3.319	31.258
3.302	30.569
3.285	29.826
3.269	29.067
3.252	28.369
3.236	27.6
3.22	26.793
3.204	25.875
3.188	24.962
3.173	24.139
3.157	23.249
3.142	22.102
3.127	21.151
3.112	20.679
3.097	20.266
3.082	19.73
3.067	19.112
3.053	18.391
3.039	17.592
3.025	17.055
3.01	16.766
2.997	16.506
2.983	16.102
2.969	15.063
2.956	14.32
2.942	14.841
2.929	14.714
2.916	14.374
2.903	14.336
2.89	14.244
2.877	14.123
2.864	14.148
2.852	14.136
2.839	14.27
2.827	14.204
2.814	13.814
2.802	13.064
2.79	11.937
2.778	10.644
2.766	7.985
2.755	8.326
2.743	7.898
2.731	7.975
2.72	8.417
2.708	8.509
2.697	11.095
2.686	16.952
2.675	21.996
2.664	25.349
2.653	27.598
2.642	28.897
2.631	30.025
2.621	30.793
2.61	30.945
2.6	31.228
2.59	31.748
2.579	32.328
2.569	32.769
2.559	33.644
2.549	34.002
2.539	34.354
2.529	34.505
2.519	34.493
2.509	34.414
2.5	34.505
2.49	34.466
2.481	34.978
2.471	35.376
2.462	35.384
2.452	35.347
2.443	35.369
2.434	35.853
2.425	36.7
2.416	37.488
2.407	38.058
2.398	38.126
2.389	37.63
2.38	37.564
2.372	38.498
2.363	38.876
2.354	38.681
2.346	38.942
2.337	39.623
2.329	39.849
2.321	40.312
2.312	41.092
2.304	42.181
2.296	42.944
2.288	43.685
2.28	44.263
2.272	44.711
2.264	44.95
2.256	45.071
2.248	44.993
2.24	44.542
2.233	44.151
2.225	43.669
2.217	41.738
2.21	35.113
2.202	37.045
2.195	37.338
2.187	38.145
2.18	39.117
2.173	39.888
2.166	40.428
2.158	42.435
2.151	44.259
2.144	46.105
2.137	47.083
2.13	47.643
2.123	48.053
2.116	48.136
2.109	48.528
2.102	49.055
2.095	49.182
2.089	49.351
2.082	49.666
2.06	50.493
2.028	50.834
1.996	50.815
1.964	50.596
1.932	50.019
1.9	50.406
1.868	51.998
1.836	52.304
1.804	52.567
1.772	52.169
1.74	52.963
1.708	52.75
1.676	52.999
1.644	53.423
1.612	52.914
1.58	53.02
1.548	52.87
1.516	53.377
1.484	53.207
1.452	52.779
1.42	51.525
1.388	46.397
1.356	52.499
1.324	53.121
1.292	53.346
1.26	54.038
1.228	54.243
1.196	54.899
1.164	54.698
1.132	54.645
1.1	54.335
1.068	54.714
1.036	54.277
1.004	54.011
0.972	53.138
0.94	51.986
0.908	51.343
0.876	50.741
0.844	50.888
0.812	51.33
0.795	52.71
0.787	52.976
0.779	53.034
0.771	53.32
0.763	53.151
0.755	53.075
0.747	53.189
0.739	53.197
0.731	52.756
0.723	52.8
0.715	52.577
0.707	52.234
0.699	51.617
0.691	50.712
0.683	50.177
0.675	49.712
0.667	49.133
0.659	49.113
0.651	48.33
0.643	48.334
0.635	48.088
0.627	47.895
0.619	47.322
0.611	46.874
0.603	46.213
0.595	45.754
0.587	44.347
0.579	42.745
0.571	41.932
0.563	40.367
0.555	39.542
0.547	38.25
0.539	37.615
0.531	37.784
0.523	36.847
0.515	37.037
0.507	36.652
0.499	36.035
0.491	35.953
0.483	35.791
0.475	35.797
0.467	35.319
0.459	35.334
0.451	34.469
0.443	33.902
0.435	33.471
0.427	33.406
0.419	33.138
0.411	32.773
0.403	32.282
